Version 4
SHEET 1 1228 680
WIRE 304 -96 304 -112
WIRE 208 -64 208 -80
WIRE 112 -32 112 -48
WIRE 16 0 16 -16
WIRE 816 208 784 208
WIRE 880 208 816 208
WIRE 816 224 816 208
WIRE 816 304 816 288
FLAG 112 48 0
FLAG 16 80 0
FLAG 208 16 0
FLAG 304 -16 0
FLAG 16 -16 A
FLAG 112 -48 B
FLAG 208 -80 C
FLAG 304 -112 D
FLAG 208 160 A
FLAG 208 192 B
FLAG 208 224 C
FLAG 208 256 D
FLAG 816 304 0
FLAG 688 64 0
FLAG 688 -16 CLK
FLAG 304 320 CLK
FLAG 688 304 CLK
FLAG 880 208 OUT
SYMBOL D_FF4 304 208 R0
SYMATTR InstName X1
SYMBOL voltage 16 -16 R0
WINDOW 123 0 0 Left 0
WINDOW 39 0 0 Left 0
SYMATTR InstName V1
SYMATTR Value PULSE(0 1 16n 1p 1p 16n 32n)
SYMBOL voltage 112 -48 R0
WINDOW 123 0 0 Left 0
WINDOW 39 0 0 Left 0
SYMATTR InstName V2
SYMATTR Value PULSE(0 1 8n 1p 1p 8n 16n)
SYMBOL voltage 208 -80 R0
WINDOW 123 0 0 Left 0
WINDOW 39 0 0 Left 0
SYMATTR InstName V3
SYMATTR Value PULSE(0 1 4n 1p 1p 4n 8n)
SYMBOL voltage 304 -112 R0
WINDOW 123 0 0 Left 0
WINDOW 39 0 0 Left 0
SYMATTR InstName V4
SYMATTR Value PULSE(0 1 2n 1p 1p 2n 4n)
SYMBOL Fonction 496 208 R0
SYMATTR InstName X2
SYMBOL D_FF 688 208 R0
SYMATTR InstName X3
SYMBOL voltage 688 -32 R0
WINDOW 123 0 0 Left 0
WINDOW 39 0 0 Left 0
SYMATTR InstName V5
SYMATTR Value PULSE(0 1 1n 1p 1p 1n 2n)
SYMBOL cap 800 224 R0
SYMATTR InstName C1
SYMATTR Value 50f
TEXT -64 -120 Left 2 !.include cmosedu_models.txt
TEXT -64 -96 Left 2 !.tran 34n
