Version 4
SHEET 1 880 680
WIRE 64 128 48 128
WIRE 96 128 64 128
WIRE 240 144 224 144
WIRE 272 144 240 144
WIRE 80 160 48 160
WIRE 96 160 80 160
WIRE 272 192 272 144
WIRE 320 192 272 192
WIRE 272 224 48 224
WIRE 320 224 272 224
WIRE 272 304 272 224
WIRE 320 304 272 304
WIRE 448 320 400 320
WIRE 240 336 240 144
WIRE 320 336 240 336
WIRE 448 352 448 320
WIRE 80 400 80 160
WIRE 320 400 80 400
WIRE 448 416 448 384
WIRE 448 416 400 416
WIRE 64 432 64 128
WIRE 320 432 64 432
FLAG 48 128 A
FLAG 48 160 B
FLAG 48 224 I
FLAG 448 208 S
FLAG 544 368 O
SYMBOL AND2 368 256 R0
SYMATTR InstName X3
SYMBOL AND2 368 352 R0
SYMATTR InstName X4
SYMBOL OR2 496 304 R0
SYMATTR InstName X5
SYMBOL XOR 160 144 R0
SYMATTR InstName X1
SYMBOL XOR 384 208 R0
SYMATTR InstName X2
