Version 4
SHEET 1 880 680
FLAG 0 192 O
FLAG 704 112 A0
FLAG 544 112 A1
FLAG 384 112 A2
FLAG 224 112 A3
FLAG 64 112 A4
FLAG 720 272 S0
FLAG 560 272 S1
FLAG 400 272 S2
FLAG 240 272 S3
FLAG 80 272 S4
FLAG 736 112 B0
FLAG 576 112 B1
FLAG 416 112 B2
FLAG 256 112 B3
FLAG 96 112 B4
FLAG 800 192 I
SYMBOL FULLADDER 80 192 R0
SYMATTR InstName X1
SYMBOL FULLADDER 240 192 R0
SYMATTR InstName X2
SYMBOL FULLADDER 400 192 R0
SYMATTR InstName X3
SYMBOL FULLADDER 560 192 R0
SYMATTR InstName X4
SYMBOL FULLADDER 720 192 R0
SYMATTR InstName X5
