Version 4
SHEET 1 932 824
WIRE 208 176 -80 176
WIRE 192 192 -48 192
WIRE 176 208 -16 208
WIRE 160 224 16 224
WIRE -80 240 -80 176
WIRE -48 240 -48 192
WIRE -16 240 -16 208
WIRE 16 240 16 224
WIRE 144 240 48 240
WIRE -48 496 -48 464
WIRE 144 496 144 240
WIRE 256 496 144 496
WIRE -80 528 -80 464
WIRE -48 528 -80 528
WIRE 160 528 160 224
WIRE 160 528 144 528
WIRE 256 528 160 528
WIRE -112 560 -112 464
WIRE -48 560 -112 560
WIRE 176 560 176 208
WIRE 176 560 144 560
WIRE 256 560 176 560
WIRE -144 592 -144 464
WIRE -48 592 -144 592
WIRE 192 592 192 192
WIRE 192 592 144 592
WIRE 256 592 192 592
WIRE -176 624 -176 464
WIRE -48 624 -176 624
WIRE 208 624 208 176
WIRE 208 624 144 624
WIRE 256 624 208 624
FLAG 64 352 0
FLAG 256 496 S4
FLAG 256 528 S3
FLAG 256 560 S2
FLAG 256 592 S1
FLAG 256 624 S0
FLAG 272 256 0
FLAG 272 176 RESET
FLAG 48 448 RESET
FLAG 272 448 0
FLAG 272 368 CLK
FLAG 48 672 CLK
FLAG -640 672 0
FLAG -640 592 A0
FLAG -640 512 0
FLAG -640 432 A1
FLAG -176 240 A3
FLAG -144 240 A4
FLAG -640 368 0
FLAG -640 288 A2
FLAG -640 224 0
FLAG -640 144 A3
FLAG -640 80 0
FLAG -640 0 A4
FLAG -288 352 O
FLAG -208 240 A2
FLAG -272 240 A0
FLAG -240 240 A1
SYMBOL FULLADDER5 -112 352 R0
SYMATTR InstName X1
SYMBOL DFF_5 48 560 R0
SYMATTR InstName X2
SYMBOL voltage 272 160 R0
WINDOW 123 0 0 Left 0
WINDOW 39 0 0 Left 0
SYMATTR InstName V1
SYMATTR Value PULSE(1 0 2n 1p 1p 20n)
SYMBOL voltage 272 352 R0
WINDOW 123 0 0 Left 0
WINDOW 39 0 0 Left 0
SYMATTR InstName V2
SYMATTR Value PULSE(0 1 2n 1p 1p 1n 2n)
SYMBOL voltage -640 576 R0
WINDOW 0 39 17 Left 2
WINDOW 3 40 45 Left 2
WINDOW 123 0 0 Left 0
WINDOW 39 0 0 Left 0
SYMATTR InstName A0
SYMATTR Value 1
SYMBOL voltage -640 416 R0
WINDOW 0 39 17 Left 2
WINDOW 3 40 45 Left 2
WINDOW 123 0 0 Left 0
WINDOW 39 0 0 Left 0
SYMATTR InstName A1
SYMATTR Value PULSE(0 1 6n 1p 1p 6n)
SYMBOL voltage -640 272 R0
WINDOW 0 39 17 Left 2
WINDOW 3 40 45 Left 2
WINDOW 123 0 0 Left 0
WINDOW 39 0 0 Left 0
SYMATTR InstName A2
SYMATTR Value 0
SYMBOL voltage -640 128 R0
WINDOW 0 39 17 Left 2
WINDOW 3 40 45 Left 2
WINDOW 123 0 0 Left 0
WINDOW 39 0 0 Left 0
SYMATTR InstName A3
SYMATTR Value PULSE(0 1 12n 1p 1p 6n)
SYMBOL voltage -640 -16 R0
WINDOW 0 39 17 Left 2
WINDOW 3 40 45 Left 2
WINDOW 123 0 0 Left 0
WINDOW 39 0 0 Left 0
SYMATTR InstName A4
SYMATTR Value 0
TEXT -272 96 Left 2 !.tran 20n
TEXT -272 136 Left 2 !.include cmosedu_models.txt
