Version 4
SHEET 1 1820 680
WIRE 1152 -832 1152 -848
WIRE 1152 -816 1152 -832
WIRE 896 -784 896 -816
WIRE 560 -752 528 -752
WIRE 896 -752 896 -784
WIRE 608 -720 608 -736
WIRE 656 -720 608 -720
WIRE 688 -720 656 -720
WIRE 608 -704 608 -720
WIRE 1152 -704 1152 -736
WIRE 528 -688 528 -752
WIRE 528 -688 464 -688
WIRE 880 -672 880 -704
WIRE 880 -672 816 -672
WIRE 880 -640 880 -672
WIRE 976 -640 976 -704
WIRE 1056 -640 976 -640
WIRE 528 -624 528 -688
WIRE 560 -624 528 -624
WIRE 608 -560 608 -608
WIRE 960 -544 960 -592
WIRE 960 -528 960 -544
WIRE 1056 -512 1056 -640
WIRE 1088 -512 1056 -512
WIRE 896 -464 896 -496
WIRE 896 -432 896 -464
WIRE 560 -384 528 -384
WIRE 880 -352 880 -384
WIRE 880 -352 816 -352
WIRE 528 -336 528 -384
WIRE 528 -336 464 -336
WIRE 608 -336 608 -368
WIRE 656 -336 608 -336
WIRE 672 -336 656 -336
WIRE 880 -320 880 -352
WIRE 976 -320 976 -384
WIRE 1056 -320 1056 -512
WIRE 1056 -320 976 -320
WIRE 528 -256 528 -336
WIRE 560 -256 528 -256
WIRE 960 -224 960 -272
WIRE 960 -208 960 -224
WIRE 608 -192 608 -240
FLAG 608 -656 0
FLAG 1152 -704 0
FLAG 1152 -832 VDD
FLAG 608 -784 VDD
FLAG 608 -560 0
FLAG 608 -832 VDD
FLAG 608 -288 0
FLAG 608 -416 VDD
FLAG 608 -192 0
FLAG 608 -464 VDD
FLAG 928 -320 0
FLAG 928 -384 VDD
FLAG 928 -640 0
FLAG 928 -704 VDD
FLAG 1216 -512 Out
IOPIN 1216 -512 Out
FLAG 464 -688 In1
IOPIN 464 -688 In
FLAG 464 -336 In2
IOPIN 464 -336 In
FLAG 656 -720 In1_b
FLAG 656 -336 In2_b
FLAG 896 -784 In2_b
FLAG 896 -464 In2
FLAG 960 -544 In2
FLAG 960 -224 In2_b
FLAG 816 -352 In1_b
FLAG 816 -672 In1
SYMBOL nmos4 560 -704 R0
WINDOW 0 104 24 Invisible 2
WINDOW 3 179 41 Invisible 2
SYMATTR InstName M1
SYMATTR Value N_50n
SYMATTR Value2 l=50n w=500n
SYMBOL voltage 1152 -832 R0
WINDOW 123 24 126 Left 2
WINDOW 39 24 111 Left 2
SYMATTR InstName VDD
SYMATTR Value 1
SYMBOL pmos4 560 -832 R0
WINDOW 0 88 9 Invisible 2
WINDOW 3 168 20 Invisible 2
SYMATTR InstName M2
SYMATTR Value P_50n
SYMATTR Value2 l=50n w=1u
SYMBOL nmos4 560 -336 R0
WINDOW 0 104 24 Right 2
WINDOW 3 179 41 Invisible 2
SYMATTR InstName M5
SYMATTR Value N_50n
SYMATTR Value2 l=50n w=500n
SYMBOL pmos4 560 -464 R0
WINDOW 0 88 9 Invisible 2
WINDOW 3 168 20 Invisible 2
SYMATTR InstName M6
SYMATTR Value P_50n
SYMATTR Value2 l=50n w=1u
SYMBOL nmos4 880 -272 R270
WINDOW 0 86 42 Invisible 2
WINDOW 3 82 140 Invisible 2
SYMATTR InstName M7
SYMATTR Value N_50n
SYMATTR Value2 l=50n w=500n
SYMBOL pmos4 976 -432 R90
WINDOW 0 71 26 Invisible 2
WINDOW 3 75 133 Invisible 2
SYMATTR InstName M3
SYMATTR Value P_50n
SYMATTR Value2 l=50n w=1u
SYMBOL nmos4 880 -592 R270
WINDOW 0 86 42 Invisible 2
WINDOW 3 82 140 Invisible 2
SYMATTR InstName M13
SYMATTR Value N_50n
SYMATTR Value2 l=50n w=500n
SYMBOL pmos4 976 -752 R90
WINDOW 0 71 26 Invisible 2
WINDOW 3 75 133 Invisible 2
SYMATTR InstName M14
SYMATTR Value P_50n
SYMATTR Value2 l=50n w=1u
SYMBOL NOT 1120 -544 R0
SYMATTR InstName X1
TEXT 1000 -272 Left 2 !.include cmosedu_models.txt
